src/test/resources/loadflowreferences/loadflow_microgrid-t3-assembled_standard.xiidm
<?xml version="1.0" encoding="UTF-8"?>
<iidm:network xmlns:iidm="http://www.powsybl.org/schema/iidm/1_10" xmlns:ctc="http://www.powsybl.org/schema/iidm/ext/cgmes_tap_changers/1_0" xmlns:clbn="http://www.powsybl.org/schema/iidm/ext/cgmes_line_boundary_node/1_0" xmlns:crc="http://www.powsybl.org/schema/iidm/ext/coordinated_reactive_control/1_0" xmlns:csshm="http://www.powsybl.org/schema/iidm/ext/cgmes_ssh_metadata/1_0" xmlns:bv="http://www.powsybl.org/schema/iidm/ext/base_voltage_mapping/1_0" xmlns:csm="http://www.powsybl.org/schema/iidm/ext/cgmes_sv_metadata/1_0" xmlns:cc="http://www.powsybl.org/schema/iidm/ext/cim_characteristics/1_0" xmlns:slt="http://www.powsybl.org/schema/iidm/ext/slack_terminal/1_5" id="urn:uuid:65d992e3-d726-44f1-95bb-639b2342283e" caseDate="2017-10-02T09:30:00.000Z" forecastDistance="1546153" sourceFormat="CGMES" minimumValidationLevel="STEADY_STATE_HYPOTHESIS">
    <iidm:property name="CGMES.EQ_ID" value="urn:uuid:236c9d9c-ef01-4bd3-9de9-63a39e676dad"/>
    <iidm:property name="CGMES.SSH_ID" value="urn:uuid:0ea3f46f-fe8b-4ec5-a28f-a85242eb3d4c"/>
    <iidm:property name="CGMES.TP_ID#0" value="urn:uuid:aecd2eb0-f3d9-4244-99aa-3fc7e6ddf117"/>
    <iidm:property name="CGMES.EQ_BD_ID" value="urn:uuid:2399cbd0-9a39-11e0-aa80-0800200c9a66"/>
    <iidm:property name="CGMES.SSH_ID#0" value="urn:uuid:a46febbb-b8b2-4073-97f7-4d05c4b2738a"/>
    <iidm:property name="CGMESModelDetail" value="node-breaker"/>
    <iidm:property name="CGMES.TP_BD_ID" value="urn:uuid:2399cbd1-9a39-11e0-aa80-0800200c9a66"/>
    <iidm:property name="CGMES.TP_ID" value="urn:uuid:91d16408-288d-46d9-b202-aee228eeeb5c"/>
    <iidm:substation id="87f7002b-056f-4a6a-a872-1744eea757e3" name="Anvers" country="BE" geographicalTags="ELIA-Anvers">
        <iidm:property name="CGMES.regionName" value="BE"/>
        <iidm:property name="CGMES.subRegionId" value="c1d5c0378f8011e08e4d00247eb1f55e"/>
        <iidm:property name="CGMES.regionId" value="c1d5bfc68f8011e08e4d00247eb1f55e"/>
        <iidm:voltageLevel id="d0486169-2205-40b2-895e-b672ecb9e5fc" name="225.0" nominalV="225.0" lowVoltageLimit="202.5" highVoltageLimit="247.5" topologyKind="NODE_BREAKER">
            <iidm:nodeBreakerTopology>
                <iidm:busbarSection id="ef45b632-3028-4afe-bc4c-a4fa323d83fe" name="BE-Busbar_2" node="5">
                    <iidm:alias type="CGMES.Terminal1">800ada75-8c8c-4568-aec5-20f799e45f3c</iidm:alias>
                </iidm:busbarSection>
                <iidm:busbarSection id="8da0ff82-2f23-4231-ac9b-28b9c9141432" name="N1230992411" node="6">
                    <iidm:alias type="CGMES.Terminal1">3c6d83a3-b5f9-41a2-a3d9-cf15d903ed0a</iidm:alias>
                </iidm:busbarSection>
                <iidm:busbarSection id="d6986ea6-fadc-4113-806a-a8f95f62c216" name="N1230992414" node="7">
                    <iidm:alias type="CGMES.Terminal1">ad794c0e-b9ec-420b-ada1-97680e3dde05</iidm:alias>
                </iidm:busbarSection>
                <iidm:switch id="925a3a38-cd26-4f89-8891-c5bc8494e1ae" name="CIRCB-1230991526" kind="BREAKER" retained="false" open="false" node1="9" node2="10">
                    <iidm:alias type="CGMES.Terminal2">e1e6f751-259f-4182-b4e1-12eba54a54ce</iidm:alias>
                    <iidm:alias type="CGMES.Terminal1">381fc1a6-63f7-4728-bb84-d4d7fe4f8794</iidm:alias>
                </iidm:switch>
                <iidm:switch id="484536e9-762a-49a3-9970-d60b9fae03fe" name="CIRCB-1230991544" kind="BREAKER" retained="false" open="false" node1="11" node2="12">
                    <iidm:alias type="CGMES.Terminal2">678a3049-afc0-432f-8f53-b30aa71907b2</iidm:alias>
                    <iidm:alias type="CGMES.Terminal1">310c303a-b0ed-4e42-9854-628f34c53d2b</iidm:alias>
                </iidm:switch>
                <iidm:switch id="fd136c65-d001-41a1-adc7-c5430b5c5e72" name="CIRCB-1230992399" kind="BREAKER" retained="false" open="false" node1="13" node2="14">
                    <iidm:alias type="CGMES.Terminal1">e57dd4ed-5ea0-4374-9b36-40a294a8e2be</iidm:alias>
                    <iidm:alias type="CGMES.Terminal2">b6e23b90-9c48-4285-ac02-5b68d0c572a6</iidm:alias>
                </iidm:switch>
                <iidm:switch id="0a84038e-1952-4d9d-9909-3b49c364a1ac" name="CIRCB-1230992408" kind="BREAKER" retained="false" open="false" node1="15" node2="16">
                    <iidm:alias type="CGMES.Terminal1">3fa4866b-1714-4be9-afab-3909ae092016</iidm:alias>
                    <iidm:alias type="CGMES.Terminal2">b741ce25-3f99-4aa8-9b03-d9de0ba6e342</iidm:alias>
                </iidm:switch>
                <iidm:internalConnection node1="5" node2="0"/>
                <iidm:internalConnection node1="6" node2="3"/>
                <iidm:internalConnection node1="7" node2="4"/>
                <iidm:internalConnection node1="8" node2="0"/>
                <iidm:internalConnection node1="9" node2="0"/>
                <iidm:internalConnection node1="10" node2="1"/>
                <iidm:internalConnection node1="11" node2="0"/>
                <iidm:internalConnection node1="12" node2="2"/>
                <iidm:internalConnection node1="13" node2="3"/>
                <iidm:internalConnection node1="14" node2="0"/>
                <iidm:internalConnection node1="15" node2="4"/>
                <iidm:internalConnection node1="16" node2="0"/>
                <iidm:internalConnection node1="17" node2="3"/>
                <iidm:internalConnection node1="18" node2="4"/>
                <iidm:internalConnection node1="19" node2="0"/>
                <iidm:internalConnection node1="20" node2="1"/>
                <iidm:internalConnection node1="21" node2="2"/>
                <iidm:bus v="232.4096275512738" angle="-6.597137462737204" nodes="0,1,2,3,4,5,6,7,8,9,10,11,12,13,14,15,16,17,18,19,20,21"/>
            </iidm:nodeBreakerTopology>
            <iidm:load id="b1480a00-b427-4001-a26c-51954d2bb7e9" name="L-1230804819" loadType="UNDEFINED" p0="1.0" q0="0.0" node="8" p="1.0" q="0.0">
                <iidm:alias type="CGMES.Terminal1">b9376bea-c75d-49f3-94ca-6a71fa0086a5</iidm:alias>
            </iidm:load>
            <iidm:danglingLine id="a16b4a6c-70b1-4abf-9a9d-bd0fa47f9fe4" name="BE-Line_7" p0="0.0" q0="0.0" r="4.6" x="69.0" g="5.75E-5" b="2.1677E-5" ucteXnodeCode="Border_ST24" node="20" p="-16.90223347288607" q="5.335668664416898">
                <iidm:currentLimits permanentLimit="1180.0">
                    <iidm:temporaryLimit name="fa8eb432-3107-4562-95fa-7f35d75101b0" acceptableDuration="20" value="1312.0"/>
                    <iidm:temporaryLimit name="367fe7fa-1b11-4090-af9a-0abc050fda58" acceptableDuration="10" value="1443.0"/>
                </iidm:currentLimits>
            </iidm:danglingLine>
            <iidm:danglingLine id="17086487-56ba-4979-b8de-064025a6b4da" name="BE-Line_1" p0="0.0" q0="0.0" r="2.2" x="68.2" g="3.08E-5" b="8.2938E-5" ucteXnodeCode="Border_ST23" node="21" p="-19.184753801216907" q="1.4542732381974086">
                <iidm:currentLimits permanentLimit="1443.0">
                    <iidm:temporaryLimit name="ad0fa884-ec20-4908-9986-48ab09ac55cd" acceptableDuration="20" value="1574.0"/>
                    <iidm:temporaryLimit name="19627231-9a8b-45e1-815c-b280a66a59ca" acceptableDuration="10" value="1705.0"/>
                </iidm:currentLimits>
            </iidm:danglingLine>
        </iidm:voltageLevel>
    </iidm:substation>
    <iidm:substation id="d78088f3-f430-44da-8239-f5ce3f14ff2a" name="BE_HVDC_Inverter" country="BE" geographicalTags="ELIA-Brussels">
        <iidm:property name="CGMES.regionName" value="BE"/>
        <iidm:property name="CGMES.subRegionId" value="c1d5bfc88f8011e08e4d00247eb1f55e"/>
        <iidm:property name="CGMES.regionId" value="c1d5bfc68f8011e08e4d00247eb1f55e"/>
        <iidm:voltageLevel id="42a4252d-6d4c-4980-99c3-d0fac18e48df" name="125.0" nominalV="125.0" lowVoltageLimit="112.5" highVoltageLimit="137.5" topologyKind="NODE_BREAKER">
            <iidm:nodeBreakerTopology>
                <iidm:internalConnection node1="1" node2="0"/>
                <iidm:internalConnection node1="2" node2="0"/>
                <iidm:bus v="132.18997210754253" angle="-7.297109669028048" nodes="0,1,2"/>
            </iidm:nodeBreakerTopology>
            <iidm:lccConverterStation id="bdda44e8-7177-4cbc-931d-c879f3723635" name="Inverter" lossFactor="0.0" powerFactor="0.8" node="2" p="-0.0" q="0.0">
                <iidm:alias type="CGMES.ACDCConverterDCTerminal">6c9de637-7d8d-43ec-8c15-1ce8f8c67185</iidm:alias>
                <iidm:alias type="CGMES.Terminal1">4123e718-716a-4988-bf71-0e525a4422f2</iidm:alias>
            </iidm:lccConverterStation>
        </iidm:voltageLevel>
        <iidm:voltageLevel id="d492d747-4de3-4d25-b2d5-a3300634c459" name="220.0" nominalV="225.0" lowVoltageLimit="202.5" highVoltageLimit="247.5" topologyKind="NODE_BREAKER">
            <iidm:nodeBreakerTopology>
                <iidm:internalConnection node1="1" node2="0"/>
                <iidm:internalConnection node1="2" node2="0"/>
                <iidm:internalConnection node1="3" node2="0"/>
                <iidm:bus v="228.42427180183344" angle="-7.297109669028048" nodes="0,1,2,3"/>
            </iidm:nodeBreakerTopology>
            <iidm:shunt id="9c4a23bf-385a-4e61-99ca-a84ffa749b29" name="HVDC1" sectionCount="1" voltageRegulatorOn="false" targetV="0.0" targetDeadband="0.5" node="1" p="0.0" q="-129.34838926358256">
                <iidm:alias type="CGMES.Terminal1">fe727d32-5757-492a-8eec-36eb0f23e698</iidm:alias>
                <iidm:property name="CGMES.RegulatingControl" value="39bfc762-194e-42d9-a8c6-1580a550e601"/>
                <iidm:shuntLinearModel bPerSection="0.002479" gPerSection="0.0" maximumSectionCount="1"/>
            </iidm:shunt>
        </iidm:voltageLevel>
        <iidm:twoWindingsTransformer id="5e9a25d2-3ccf-4597-b50a-ea8833311144" name="BE HVDC TR1" r="0.0" x="13.053797530864198" g="0.0" b="0.0" ratedU1="225.0" ratedU2="125.0" node1="3" voltageLevelId1="d492d747-4de3-4d25-b2d5-a3300634c459" node2="1" voltageLevelId2="42a4252d-6d4c-4980-99c3-d0fac18e48df" p1="0.0" q1="0.0" p2="0.0" q2="0.0">
            <iidm:alias type="CGMES.TransformerEnd1">c9989583-d2c3-4d52-9f3b-7a98a8211fb6</iidm:alias>
            <iidm:alias type="CGMES.Terminal2">204bb7dc-4b03-473c-8761-664d8a08d5e6</iidm:alias>
            <iidm:alias type="CGMES.TransformerEnd2">93328873-3789-4f09-a187-0701c3ea0630</iidm:alias>
            <iidm:alias type="CGMES.Terminal1">bd69ce1d-c5c6-4d49-9d4d-0d3ae3691adf</iidm:alias>
            <iidm:alias type="CGMES.RatioTapChanger1">641b8688-b0bc-49c3-9a49-f129851deb4c</iidm:alias>
            <iidm:ratioTapChanger lowTapPosition="1" tapPosition="7" targetDeadband="0.5" loadTapChangingCapabilities="true" regulating="false" targetV="0.0">
                <iidm:terminalRef id="5e9a25d2-3ccf-4597-b50a-ea8833311144" side="TWO"/>
                <iidm:step r="0.0" x="0.0" g="0.0" b="0.0" rho="1.1111111111111112"/>
                <iidm:step r="0.0" x="0.0" g="0.0" b="0.0" rho="1.0989010989010988"/>
                <iidm:step r="0.0" x="0.0" g="0.0" b="0.0" rho="1.0869565217391304"/>
                <iidm:step r="0.0" x="0.0" g="0.0" b="0.0" rho="1.0752688172043012"/>
                <iidm:step r="0.0" x="0.0" g="0.0" b="0.0" rho="1.0638297872340425"/>
                <iidm:step r="0.0" x="0.0" g="0.0" b="0.0" rho="1.0526315789473684"/>
                <iidm:step r="0.0" x="0.0" g="0.0" b="0.0" rho="1.0416666666666667"/>
                <iidm:step r="0.0" x="0.0" g="0.0" b="0.0" rho="1.0309278350515465"/>
                <iidm:step r="0.0" x="0.0" g="0.0" b="0.0" rho="1.0204081632653061"/>
                <iidm:step r="0.0" x="0.0" g="0.0" b="0.0" rho="1.0101010101010102"/>
                <iidm:step r="0.0" x="0.0" g="0.0" b="0.0" rho="1.0"/>
                <iidm:step r="0.0" x="0.0" g="0.0" b="0.0" rho="0.9900990099009901"/>
                <iidm:step r="0.0" x="0.0" g="0.0" b="0.0" rho="0.9803921568627451"/>
                <iidm:step r="0.0" x="0.0" g="0.0" b="0.0" rho="0.970873786407767"/>
                <iidm:step r="0.0" x="0.0" g="0.0" b="0.0" rho="0.9615384615384615"/>
                <iidm:step r="0.0" x="0.0" g="0.0" b="0.0" rho="0.9523809523809523"/>
                <iidm:step r="0.0" x="0.0" g="0.0" b="0.0" rho="0.9433962264150942"/>
                <iidm:step r="0.0" x="0.0" g="0.0" b="0.0" rho="0.9345794392523364"/>
                <iidm:step r="0.0" x="0.0" g="0.0" b="0.0" rho="0.9259259259259258"/>
                <iidm:step r="0.0" x="0.0" g="0.0" b="0.0" rho="0.9174311926605504"/>
                <iidm:step r="0.0" x="0.0" g="0.0" b="0.0" rho="0.9090909090909091"/>
            </iidm:ratioTapChanger>
            <iidm:currentLimits1 permanentLimit="405.4">
                <iidm:temporaryLimit name="69f7c8b3-384f-4549-aed6-77f581766559" acceptableDuration="20" value="405.4"/>
                <iidm:temporaryLimit name="017ffe8f-0bf1-49d5-9af8-fedb6456c1b6" acceptableDuration="10" value="405.4"/>
            </iidm:currentLimits1>
            <iidm:currentLimits2 permanentLimit="729.8">
                <iidm:temporaryLimit name="ed85b07a-34a1-4f72-968d-ae3d4a9c91b1" acceptableDuration="20" value="729.8"/>
                <iidm:temporaryLimit name="dc423087-fba9-4e57-841f-ccd403167b32" acceptableDuration="10" value="729.8"/>
            </iidm:currentLimits2>
        </iidm:twoWindingsTransformer>
    </iidm:substation>
    <iidm:substation id="d88421c3-e83a-4478-b2d6-e5697247d3dc" name="BE_HVDC_Rectifier" country="BE" geographicalTags="ELIA-Anvers">
        <iidm:property name="CGMES.regionName" value="BE"/>
        <iidm:property name="CGMES.subRegionId" value="c1d5c0378f8011e08e4d00247eb1f55e"/>
        <iidm:property name="CGMES.regionId" value="c1d5bfc68f8011e08e4d00247eb1f55e"/>
        <iidm:voltageLevel id="358a38c7-0085-410a-a5a1-f8951e4fcc50" name="125.0" nominalV="125.0" lowVoltageLimit="112.5" highVoltageLimit="137.5" topologyKind="NODE_BREAKER">
            <iidm:nodeBreakerTopology>
                <iidm:internalConnection node1="1" node2="0"/>
                <iidm:internalConnection node1="2" node2="0"/>
                <iidm:bus v="134.51854096857735" angle="-6.601879472098135" nodes="0,1,2"/>
            </iidm:nodeBreakerTopology>
            <iidm:lccConverterStation id="6a6ee7e4-98d3-4c36-b3f8-6c398f8b6a35" name="Rectifier" lossFactor="0.0" powerFactor="0.8" node="2" p="0.0" q="0.0">
                <iidm:alias type="CGMES.ACDCConverterDCTerminal">c7a8052a-90d2-46fe-8ff6-09593f29b29e</iidm:alias>
                <iidm:alias type="CGMES.Terminal1">c4c335b5-0405-4539-be10-697f5a3f3e83</iidm:alias>
            </iidm:lccConverterStation>
        </iidm:voltageLevel>
        <iidm:voltageLevel id="0ef7e527-e1c6-4ba0-93b4-471ebe699df1" name="220.0" nominalV="225.0" lowVoltageLimit="202.5" highVoltageLimit="247.5" topologyKind="NODE_BREAKER">
            <iidm:nodeBreakerTopology>
                <iidm:internalConnection node1="1" node2="0"/>
                <iidm:internalConnection node1="2" node2="0"/>
                <iidm:internalConnection node1="3" node2="0"/>
                <iidm:bus v="232.44803879370164" angle="-6.601879472098135" nodes="0,1,2,3"/>
            </iidm:nodeBreakerTopology>
            <iidm:shunt id="8c5c883a-f50d-4a79-8d74-de61226830bb" name="HVDC2" sectionCount="1" voltageRegulatorOn="false" targetV="0.0" targetDeadband="0.5" node="1" p="0.0" q="-44.63050695044558">
                <iidm:alias type="CGMES.Terminal1">dd972655-21d1-46fd-bc5f-ff242f60867c</iidm:alias>
                <iidm:property name="CGMES.RegulatingControl" value="ab4a970f-1cc1-470d-843f-1197269c9231"/>
                <iidm:shuntLinearModel bPerSection="8.26E-4" gPerSection="0.0" maximumSectionCount="1"/>
            </iidm:shunt>
        </iidm:voltageLevel>
        <iidm:twoWindingsTransformer id="53eca3a5-f203-42e1-aaf0-73769d379c45" name="BE HVDC TR2" r="0.0" x="13.053797530864198" g="0.0" b="0.0" ratedU1="225.0" ratedU2="125.0" node1="3" voltageLevelId1="0ef7e527-e1c6-4ba0-93b4-471ebe699df1" node2="1" voltageLevelId2="358a38c7-0085-410a-a5a1-f8951e4fcc50" p1="0.0" q1="0.0" p2="0.0" q2="0.0">
            <iidm:alias type="CGMES.Terminal1">c6f914d2-15df-4aee-acca-91ea446da16b</iidm:alias>
            <iidm:alias type="CGMES.TransformerEnd2">88bb6eba-b82a-423c-9bab-ba7dd92321f2</iidm:alias>
            <iidm:alias type="CGMES.Terminal2">ca50ea24-48c1-431e-9337-378935f597ff</iidm:alias>
            <iidm:alias type="CGMES.TransformerEnd1">8243aca3-1d86-40fd-b3cb-ef7e769aa436</iidm:alias>
            <iidm:alias type="CGMES.RatioTapChanger1">2aa13bb2-8bcd-4f98-b2ce-c3c444e1d2f0</iidm:alias>
            <iidm:ratioTapChanger lowTapPosition="1" tapPosition="7" targetDeadband="0.5" loadTapChangingCapabilities="true" regulating="false" targetV="0.0">
                <iidm:terminalRef id="53eca3a5-f203-42e1-aaf0-73769d379c45" side="TWO"/>
                <iidm:step r="0.0" x="0.0" g="0.0" b="0.0" rho="1.1111111111111112"/>
                <iidm:step r="0.0" x="0.0" g="0.0" b="0.0" rho="1.0989010989010988"/>
                <iidm:step r="0.0" x="0.0" g="0.0" b="0.0" rho="1.0869565217391304"/>
                <iidm:step r="0.0" x="0.0" g="0.0" b="0.0" rho="1.0752688172043012"/>
                <iidm:step r="0.0" x="0.0" g="0.0" b="0.0" rho="1.0638297872340425"/>
                <iidm:step r="0.0" x="0.0" g="0.0" b="0.0" rho="1.0526315789473684"/>
                <iidm:step r="0.0" x="0.0" g="0.0" b="0.0" rho="1.0416666666666667"/>
                <iidm:step r="0.0" x="0.0" g="0.0" b="0.0" rho="1.0309278350515465"/>
                <iidm:step r="0.0" x="0.0" g="0.0" b="0.0" rho="1.0204081632653061"/>
                <iidm:step r="0.0" x="0.0" g="0.0" b="0.0" rho="1.0101010101010102"/>
                <iidm:step r="0.0" x="0.0" g="0.0" b="0.0" rho="1.0"/>
                <iidm:step r="0.0" x="0.0" g="0.0" b="0.0" rho="0.9900990099009901"/>
                <iidm:step r="0.0" x="0.0" g="0.0" b="0.0" rho="0.9803921568627451"/>
                <iidm:step r="0.0" x="0.0" g="0.0" b="0.0" rho="0.970873786407767"/>
                <iidm:step r="0.0" x="0.0" g="0.0" b="0.0" rho="0.9615384615384615"/>
                <iidm:step r="0.0" x="0.0" g="0.0" b="0.0" rho="0.9523809523809523"/>
                <iidm:step r="0.0" x="0.0" g="0.0" b="0.0" rho="0.9433962264150942"/>
                <iidm:step r="0.0" x="0.0" g="0.0" b="0.0" rho="0.9345794392523364"/>
                <iidm:step r="0.0" x="0.0" g="0.0" b="0.0" rho="0.9259259259259258"/>
                <iidm:step r="0.0" x="0.0" g="0.0" b="0.0" rho="0.9174311926605504"/>
                <iidm:step r="0.0" x="0.0" g="0.0" b="0.0" rho="0.9090909090909091"/>
            </iidm:ratioTapChanger>
            <iidm:currentLimits1 permanentLimit="405.4">
                <iidm:temporaryLimit name="38e2bd37-a9ff-4bc5-a681-3abdaa1d5457" acceptableDuration="20" value="405.4"/>
                <iidm:temporaryLimit name="df78e681-4aa8-44a9-81e7-4004c8200a19" acceptableDuration="10" value="405.4"/>
            </iidm:currentLimits1>
            <iidm:currentLimits2 permanentLimit="729.8">
                <iidm:temporaryLimit name="6ad15a43-e661-4739-b3ec-cb7a4b1eb9a3" acceptableDuration="20" value="729.8"/>
                <iidm:temporaryLimit name="e86217e5-8524-4593-a263-c100ee9e343f" acceptableDuration="10" value="729.8"/>
            </iidm:currentLimits2>
        </iidm:twoWindingsTransformer>
    </iidm:substation>
    <iidm:substation id="37e14a0f-5e34-4647-a062-8bfd9305fa9d" name="PP_Brussels" country="BE" geographicalTags="ELIA-Brussels">
        <iidm:property name="CGMES.regionName" value="BE"/>
        <iidm:property name="CGMES.subRegionId" value="c1d5bfc88f8011e08e4d00247eb1f55e"/>
        <iidm:property name="CGMES.regionId" value="c1d5bfc68f8011e08e4d00247eb1f55e"/>
        <iidm:voltageLevel id="4ba71b59-ee2f-450b-9f7d-cc2f1cc5e386" name="10.5" nominalV="10.5" lowVoltageLimit="9.45" highVoltageLimit="11.55" topologyKind="NODE_BREAKER">
            <iidm:nodeBreakerTopology>
                <iidm:busbarSection id="fd649fe1-bdf5-4062-98ea-bbb66f50402d" name="BE-Busbar_4" node="1">
                    <iidm:alias type="CGMES.Terminal1">65b8c937-9b25-4b9e-addf-602dbc1337f9</iidm:alias>
                </iidm:busbarSection>
                <iidm:internalConnection node1="1" node2="0"/>
                <iidm:internalConnection node1="2" node2="0"/>
                <iidm:internalConnection node1="3" node2="0"/>
                <iidm:bus v="9.73007299969094" angle="-3.556254842423547" nodes="0,1,2,3"/>
            </iidm:nodeBreakerTopology>
            <iidm:generator id="3a3b27be-b18b-4385-b557-6735d733baf0" name="BE-G1" energySource="OTHER" minP="50.0" maxP="200.0" ratedS="300.0" voltageRegulatorOn="true" targetP="90.0" targetV="115.5" targetQ="100.256" node="2" p="-85.33841074963489" q="192.05700621909355">
                <iidm:alias type="CGMES.Terminal1">beffa353-7d10-421d-9c08-036b744b1cee</iidm:alias>
                <iidm:property name="CGMES.normalPF" value="0.0"/>
                <iidm:property name="CGMES.GeneratingUnit" value="18993b11-2966-4bce-bab9-d86103f83b53"/>
                <iidm:property name="CGMES.RegulatingControl" value="6ba406ce-78cf-4485-9b01-a34e584f1a8d"/>
                <iidm:regulatingTerminal id="364c9ca2-0d1d-4363-8f46-e586f8f66a8c"/>
                <iidm:reactiveCapabilityCurve>
                    <iidm:point p="-100.0" minQ="-200.0" maxQ="200.0"/>
                    <iidm:point p="0.0" minQ="-300.0" maxQ="300.0"/>
                    <iidm:point p="100.0" minQ="-200.0" maxQ="200.0"/>
                </iidm:reactiveCapabilityCurve>
            </iidm:generator>
        </iidm:voltageLevel>
        <iidm:voltageLevel id="8bbd7e74-ae20-4dce-8780-c20f8e18c2e0" name="110.0" nominalV="110.0" lowVoltageLimit="99.0" highVoltageLimit="121.0" topologyKind="NODE_BREAKER">
            <iidm:nodeBreakerTopology>
                <iidm:busbarSection id="364c9ca2-0d1d-4363-8f46-e586f8f66a8c" name="BE-Busbar_6" node="4">
                    <iidm:alias type="CGMES.Terminal1">a1b46f53-86f1-497e-bf57-c3b6268bcd6c</iidm:alias>
                </iidm:busbarSection>
                <iidm:switch id="38dfcc80-600f-44e2-8f71-fb595b4f00ac" name="BE_Breaker_1" kind="BREAKER" retained="false" open="false" node1="7" node2="8">
                    <iidm:alias type="CGMES.Terminal1">9f5dbaf3-e384-4e86-9d49-f43c30b4e354</iidm:alias>
                    <iidm:alias type="CGMES.Terminal2">95f1d705-35fa-4102-ba5b-43dfe7a0e0cc</iidm:alias>
                </iidm:switch>
                <iidm:switch id="2922c1dd-4113-466e-8cad-002572f3f557" name="BE_Breaker_3" kind="BREAKER" retained="false" open="false" node1="9" node2="10">
                    <iidm:alias type="CGMES.Terminal1">4bbaf84d-2437-44e1-a56c-e79723370e77</iidm:alias>
                    <iidm:alias type="CGMES.Terminal2">b8bca219-a924-434f-8163-50aae6d486a7</iidm:alias>
                </iidm:switch>
                <iidm:switch id="6e86cd52-4594-435e-92ce-6dc673288ab4" name="BE_Breaker_5" kind="BREAKER" retained="false" open="false" node1="11" node2="12">
                    <iidm:alias type="CGMES.Terminal1">5245aa5c-9600-4632-95db-e981a19ed857</iidm:alias>
                    <iidm:alias type="CGMES.Terminal2">61562178-c201-43c7-b56d-a300ab07c723</iidm:alias>
                </iidm:switch>
                <iidm:internalConnection node1="4" node2="0"/>
                <iidm:internalConnection node1="5" node2="0"/>
                <iidm:internalConnection node1="6" node2="0"/>
                <iidm:internalConnection node1="7" node2="0"/>
                <iidm:internalConnection node1="8" node2="1"/>
                <iidm:internalConnection node1="9" node2="0"/>
                <iidm:internalConnection node1="10" node2="2"/>
                <iidm:internalConnection node1="11" node2="3"/>
                <iidm:internalConnection node1="12" node2="0"/>
                <iidm:internalConnection node1="13" node2="3"/>
                <iidm:internalConnection node1="14" node2="2"/>
                <iidm:internalConnection node1="15" node2="1"/>
                <iidm:bus v="115.5" angle="-6.0134011436319765" nodes="0,1,2,3,4,5,6,7,8,9,10,11,12,13,14,15"/>
            </iidm:nodeBreakerTopology>
            <iidm:load id="cb459405-cc14-4215-a45c-416789205904" name="BE-Load_1" loadType="UNDEFINED" p0="200.0" q0="90.0" node="5" p="200.0" q="90.0">
                <iidm:alias type="CGMES.Terminal1">cbdf1842-74ed-4fce-a5d4-0296c82cbc92</iidm:alias>
            </iidm:load>
            <iidm:shunt id="d771118f-36e9-4115-a128-cc3d9ce3e3da" name="BE_S1" sectionCount="1" voltageRegulatorOn="false" targetV="110.0" targetDeadband="0.5" node="6" p="0.0" q="-330.74481825">
                <iidm:alias type="CGMES.Terminal1">d5e2e58e-ccf6-47d9-b3bb-3088eb7a9b6c</iidm:alias>
                <iidm:property name="CGMES.RegulatingControl" value="4d50f86d-0d12-4ca3-9430-56bb05f9eee6"/>
                <iidm:shuntLinearModel bPerSection="0.024793" gPerSection="0.0" maximumSectionCount="1"/>
            </iidm:shunt>
        </iidm:voltageLevel>
        <iidm:voltageLevel id="929ba893-c9dc-44d7-b1fd-30834bd3ab85" name="21.0" nominalV="21.0" lowVoltageLimit="18.9" highVoltageLimit="23.1" topologyKind="NODE_BREAKER">
            <iidm:nodeBreakerTopology>
                <iidm:switch id="969470b9-e74c-40d2-b3f7-bcfd88400fd1" name="BE_Breaker_10" kind="BREAKER" retained="false" open="false" node1="3" node2="4">
                    <iidm:alias type="CGMES.Terminal1">f392d0d3-47cb-4ec1-925f-b3762d4a787c</iidm:alias>
                    <iidm:alias type="CGMES.Terminal2">b3bf6cbd-abe8-42b6-95f4-20682475b484</iidm:alias>
                </iidm:switch>
                <iidm:internalConnection node1="2" node2="0"/>
                <iidm:internalConnection node1="3" node2="0"/>
                <iidm:internalConnection node1="4" node2="1"/>
                <iidm:internalConnection node1="5" node2="1"/>
                <iidm:bus v="21.987" angle="-6.018076264664866" nodes="0,1,2,3,4,5"/>
            </iidm:nodeBreakerTopology>
            <iidm:generator id="550ebe0d-f2b2-48c1-991f-cebea43a21aa" name="BE-G2" energySource="OTHER" minP="50.0" maxP="200.0" ratedS="300.0" voltageRegulatorOn="true" targetP="118.0" targetV="21.987" targetQ="18.720301" node="2" p="-113.33841074963486" q="-23.141570727177694">
                <iidm:alias type="CGMES.Terminal1">4bb5407b-b4a5-416c-80ad-1a778ada2b9b</iidm:alias>
                <iidm:property name="CGMES.normalPF" value="0.0"/>
                <iidm:property name="CGMES.GeneratingUnit" value="5b7a4d43-09ec-4033-882d-64a76d557631"/>
                <iidm:property name="CGMES.RegulatingControl" value="84bf5be8-eb59-4555-b131-fce4d2d7775d"/>
                <iidm:minMaxReactiveLimits minQ="-200.0" maxQ="200.0"/>
            </iidm:generator>
        </iidm:voltageLevel>
        <iidm:voltageLevel id="b10b171b-3bc5-4849-bb1f-61ed9ea1ec7c" name="225.0" nominalV="225.0" lowVoltageLimit="202.5" highVoltageLimit="247.5" topologyKind="NODE_BREAKER">
            <iidm:nodeBreakerTopology>
                <iidm:busbarSection id="5caf27ed-d2f8-458a-834a-6b3193a982e6" name="BE-Busbar_3" node="4">
                    <iidm:alias type="CGMES.Terminal1">62fc0a4e-00aa-4bf7-b1a0-3a5b2c0b5492</iidm:alias>
                </iidm:busbarSection>
                <iidm:busbarSection id="63f25be7-7592-4cf1-8401-5772046ef2ae" name="N1230992288" node="5">
                    <iidm:alias type="CGMES.Terminal1">8f1c492f-a7cc-4160-9a14-54f1743e4850</iidm:alias>
                </iidm:busbarSection>
                <iidm:busbarSection id="c8ce5e08-5ee3-42d9-aa44-5792db252d9f" name="N1230992291" node="6">
                    <iidm:alias type="CGMES.Terminal1">302fe23a-f64d-41bd-8a81-78130433916d</iidm:alias>
                </iidm:busbarSection>
                <iidm:switch id="a603d890-5d9d-42ef-98d0-acf47d121c0e" name="BE_Breaker_4" kind="BREAKER" retained="false" open="false" node1="8" node2="9">
                    <iidm:alias type="CGMES.Terminal2">68d47f87-1a1f-4c63-80ca-d3becb4a47f9</iidm:alias>
                    <iidm:alias type="CGMES.Terminal1">529a048e-7681-4e59-aba1-f7474a562cba</iidm:alias>
                </iidm:switch>
                <iidm:switch id="3b394dab-ab47-4022-98be-8123c6dfe7d4" name="CIRCB-1230992276" kind="BREAKER" retained="false" open="false" node1="10" node2="11">
                    <iidm:alias type="CGMES.Terminal1">756dff85-b2c8-4a06-9a4c-4dde854e668b</iidm:alias>
                    <iidm:alias type="CGMES.Terminal2">3f8b7c82-ca57-401a-9e2d-b719f8c83030</iidm:alias>
                </iidm:switch>
                <iidm:switch id="ddc148fc-3abd-459d-aec1-396283e0def6" name="CIRCB-1230992285" kind="BREAKER" retained="false" open="false" node1="12" node2="13">
                    <iidm:alias type="CGMES.Terminal1">b501caa7-949f-49c6-b4d4-f50ef3625ede</iidm:alias>
                    <iidm:alias type="CGMES.Terminal2">fd2867a9-0c57-4cf2-acfb-439c4039b06b</iidm:alias>
                </iidm:switch>
                <iidm:internalConnection node1="4" node2="0"/>
                <iidm:internalConnection node1="5" node2="2"/>
                <iidm:internalConnection node1="6" node2="3"/>
                <iidm:internalConnection node1="7" node2="0"/>
                <iidm:internalConnection node1="8" node2="1"/>
                <iidm:internalConnection node1="9" node2="0"/>
                <iidm:internalConnection node1="10" node2="0"/>
                <iidm:internalConnection node1="11" node2="2"/>
                <iidm:internalConnection node1="12" node2="0"/>
                <iidm:internalConnection node1="13" node2="3"/>
                <iidm:internalConnection node1="14" node2="2"/>
                <iidm:internalConnection node1="15" node2="3"/>
                <iidm:internalConnection node1="16" node2="0"/>
                <iidm:internalConnection node1="17" node2="0"/>
                <iidm:internalConnection node1="18" node2="1"/>
                <iidm:bus v="228.31101465748253" angle="-7.282890400587346" nodes="0,1,2,3,4,5,6,7,8,9,10,11,12,13,14,15,16,17,18"/>
            </iidm:nodeBreakerTopology>
            <iidm:load id="1c6beed6-1acf-42e7-ba55-0cc9f04bddd8" name="BE-Load_2" loadType="UNDEFINED" p0="200.0" q0="50.0" node="7" p="200.0" q="50.0">
                <iidm:alias type="CGMES.Terminal1">a036b765-1669-4f64-acd3-1e8fbd513312</iidm:alias>
            </iidm:load>
        </iidm:voltageLevel>
        <iidm:voltageLevel id="469df5f7-058f-4451-a998-57a48e8a56fe" name="380.0" nominalV="380.0" lowVoltageLimit="342.0" highVoltageLimit="418.0" topologyKind="NODE_BREAKER">
            <iidm:nodeBreakerTopology>
                <iidm:busbarSection id="64901aec-5a8a-4bcb-8ca7-a3ddbfcd0e6c" name="BE-Busbar_1" node="5">
                    <iidm:alias type="CGMES.Terminal1">fa9e0f4d-8a2f-45e1-9e36-3611600d1c94</iidm:alias>
                </iidm:busbarSection>
                <iidm:switch id="96c2b5c8-8e28-4b08-96d2-ca9b09cdbd83" name="BE_Breaker_12" kind="BREAKER" retained="false" open="false" node1="7" node2="8">
                    <iidm:alias type="CGMES.Terminal1">5c206db8-ef8c-4e53-b2b9-38b52b194c5a</iidm:alias>
                    <iidm:alias type="CGMES.Terminal2">a45d705f-46f6-4bde-8790-11a762da8c01</iidm:alias>
                </iidm:switch>
                <iidm:switch id="6b564930-b5e2-49d3-9d06-e1de28d6fd65" name="BE_Breaker_2" kind="BREAKER" retained="false" open="false" node1="9" node2="10">
                    <iidm:alias type="CGMES.Terminal1">345d8528-1a7e-4245-92d6-15db7a7e3c86</iidm:alias>
                    <iidm:alias type="CGMES.Terminal2">907dbcfe-2037-4f84-97f1-6e59f782168e</iidm:alias>
                </iidm:switch>
                <iidm:switch id="14d55344-c118-4f54-a430-72f16d12bf7b" name="CIRCB-1230991718" kind="BREAKER" retained="false" open="false" node1="11" node2="12">
                    <iidm:alias type="CGMES.Terminal2">6811721b-252c-45fd-8474-6db1e7d5739e</iidm:alias>
                    <iidm:alias type="CGMES.Terminal1">042688a6-140f-473c-98f9-94a3cfdc00d3</iidm:alias>
                </iidm:switch>
                <iidm:switch id="0e8cd279-ad5d-485a-b3a9-093ae8714b72" name="CIRCB-1230991736" kind="BREAKER" retained="false" open="false" node1="13" node2="14">
                    <iidm:alias type="CGMES.Terminal1">0cca0f16-c476-4a99-b289-d660ff57b891</iidm:alias>
                    <iidm:alias type="CGMES.Terminal2">36fedfd8-280b-4ee4-b58a-cd2063e5d706</iidm:alias>
                </iidm:switch>
                <iidm:internalConnection node1="5" node2="0"/>
                <iidm:internalConnection node1="6" node2="0"/>
                <iidm:internalConnection node1="7" node2="1"/>
                <iidm:internalConnection node1="8" node2="0"/>
                <iidm:internalConnection node1="9" node2="2"/>
                <iidm:internalConnection node1="10" node2="0"/>
                <iidm:internalConnection node1="11" node2="0"/>
                <iidm:internalConnection node1="12" node2="3"/>
                <iidm:internalConnection node1="13" node2="0"/>
                <iidm:internalConnection node1="14" node2="4"/>
                <iidm:internalConnection node1="15" node2="1"/>
                <iidm:internalConnection node1="16" node2="2"/>
                <iidm:internalConnection node1="17" node2="3"/>
                <iidm:internalConnection node1="18" node2="0"/>
                <iidm:internalConnection node1="19" node2="4"/>
                <iidm:bus v="416.2674383753567" angle="-6.99924939063405" nodes="0,1,2,3,4,5,6,7,8,9,10,11,12,13,14,15,16,17,18,19"/>
            </iidm:nodeBreakerTopology>
            <iidm:shunt id="002b0a40-3957-46db-b84a-30420083558f" name="BE_S2" sectionCount="1" voltageRegulatorOn="false" targetV="380.0" targetDeadband="0.5" node="6" p="1.2129500617610696" q="-59.95438876704715">
                <iidm:alias type="CGMES.Terminal1">22af3121-1a66-4546-bd80-4371f417c644</iidm:alias>
                <iidm:property name="CGMES.RegulatingControl" value="67971e8d-518a-408f-9e59-c7601da9a989"/>
                <iidm:shuntLinearModel bPerSection="3.46E-4" gPerSection="7.0E-6" maximumSectionCount="1"/>
            </iidm:shunt>
            <iidm:danglingLine id="b18cd1aa-7808-49b9-a7cf-605eaf07b006" name="BE-Line_5" p0="0.0" q0="0.0" r="0.42" x="6.3" g="4.2E-5" b="6.59734E-5" ucteXnodeCode="Border_GY11" node="17" p="-92.97660065861439" q="108.74868467746546">
                <iidm:currentLimits permanentLimit="1804.0">
                    <iidm:temporaryLimit name="bea68f9e-5348-40dd-ac14-75c41a6a38bd" acceptableDuration="20" value="1876.0"/>
                    <iidm:temporaryLimit name="3b3fdb5e-dafe-41bb-acfb-eb21be018863" acceptableDuration="10" value="1948.0"/>
                </iidm:currentLimits>
            </iidm:danglingLine>
            <iidm:danglingLine id="ed0c5d75-4a54-43c8-b782-b20d7431630b" name="BE-Line_4" p0="0.0" q0="0.0" r="0.24" x="2.0" g="4.0E-5" b="2.51956E-5" ucteXnodeCode="Border_MA11" node="18" p="-46.299909253379994" q="66.06272582150085">
                <iidm:currentLimits permanentLimit="1226.0">
                    <iidm:temporaryLimit name="d5a5feb2-8345-487c-a1bc-af3829329391" acceptableDuration="20" value="1299.0"/>
                    <iidm:temporaryLimit name="e6c72199-8db4-4674-bdd8-d6808afb115e" acceptableDuration="10" value="1371.0"/>
                </iidm:currentLimits>
            </iidm:danglingLine>
            <iidm:danglingLine id="78736387-5f60-4832-b3fe-d50daf81b0a6" name="BE-Line_3" p0="0.0" q0="0.0" r="1.05" x="12.0" g="6.0E-5" b="1.49854E-4" ucteXnodeCode="Border_AL11" node="19" p="-40.92206689935025" q="38.04559844784159">
                <iidm:currentLimits permanentLimit="1371.0">
                    <iidm:temporaryLimit name="e207f382-e138-4a26-a40d-6c01dda96879" acceptableDuration="20" value="1443.0"/>
                    <iidm:temporaryLimit name="ca002966-c9a3-4a17-a12d-1cd32c9d9a7e" acceptableDuration="10" value="1515.0"/>
                </iidm:currentLimits>
            </iidm:danglingLine>
        </iidm:voltageLevel>
        <iidm:twoWindingsTransformer id="e482b89a-fa84-4ea9-8e70-a83d44790957" name="BE-TR2_3" r="9.481464576284766E-4" x="0.052911509061024486" g="0.0019138280377471303" b="-0.00917006295066167" ratedU1="110.34375" ratedU2="10.5" node1="13" voltageLevelId1="8bbd7e74-ae20-4dce-8780-c20f8e18c2e0" node2="3" voltageLevelId2="4ba71b59-ee2f-450b-9f7d-cc2f1cc5e386" p1="-84.68585388951463" q1="216.67891967387104" p2="85.33839623499509" q2="-192.05700621909355">
            <iidm:alias type="CGMES.TransformerEnd2">35651e25-a77a-46a1-92f4-443d6acce90e</iidm:alias>
            <iidm:alias type="CGMES.RatioTapChanger2">83cc66dd-8d93-4a2c-8103-f1f5a9cf7e2e</iidm:alias>
            <iidm:alias type="CGMES.TransformerEnd1">f58281c5-862a-465e-97ec-d809be6e24ab</iidm:alias>
            <iidm:alias type="CGMES.Terminal1">ca7974cf-b25e-4898-9221-7154233e5eb2</iidm:alias>
            <iidm:alias type="CGMES.Terminal2">1182d878-2eaa-4eec-91be-ce7b2b1e7f9a</iidm:alias>
            <iidm:ratioTapChanger lowTapPosition="1" tapPosition="14" targetDeadband="0.5" loadTapChangingCapabilities="true" regulating="true" targetV="10.815">
                <iidm:terminalRef id="e482b89a-fa84-4ea9-8e70-a83d44790957" side="TWO"/>
                <iidm:step r="-23.961600000000004" x="-23.961600000000004" g="31.512498947900024" b="31.512498947900024" rho="0.872"/>
                <iidm:step r="-22.560000000000002" x="-22.560000000000002" g="29.132231404958688" b="29.132231404958688" rho="0.8799999999999999"/>
                <iidm:step r="-21.145599999999998" x="-21.145599999999998" g="26.816005194383564" b="26.816005194383564" rho="0.888"/>
                <iidm:step r="-19.718399999999992" x="-19.718399999999992" g="24.56154336734693" b="24.56154336734693" rho="0.896"/>
                <iidm:step r="-18.278399999999994" x="-18.278399999999994" g="22.366669277155605" b="22.366669277155605" rho="0.904"/>
                <iidm:step r="-16.825599999999994" x="-16.825599999999994" g="20.22930132348415" b="20.22930132348415" rho="0.9120000000000001"/>
                <iidm:step r="-15.359999999999996" x="-15.359999999999996" g="18.14744801512287" b="18.14744801512287" rho="0.92"/>
                <iidm:step r="-13.881600000000017" x="-13.881600000000017" g="16.119203329369824" b="16.119203329369824" rho="0.9279999999999999"/>
                <iidm:step r="-12.390400000000012" x="-12.390400000000012" g="14.142742347870563" b="14.142742347870563" rho="0.936"/>
                <iidm:step r="-10.886400000000007" x="-10.886400000000007" g="12.216317150244183" b="12.216317150244183" rho="0.944"/>
                <iidm:step r="-9.36960000000001" x="-9.36960000000001" g="10.338252948238136" b="10.338252948238136" rho="0.952"/>
                <iidm:step r="-7.8400000000000025" x="-7.8400000000000025" g="8.506944444444443" b="8.506944444444443" rho="0.96"/>
                <iidm:step r="-6.297600000000003" x="-6.297600000000003" g="6.720852400792299" b="6.720852400792299" rho="0.9679999999999999"/>
                <iidm:step r="-4.742400000000002" x="-4.742400000000002" g="4.978500403117447" b="4.978500403117447" rho="0.9760000000000001"/>
                <iidm:step r="-3.1743999999999994" x="-3.1743999999999994" g="3.278471809108341" b="3.278471809108341" rho="0.9839999999999999"/>
                <iidm:step r="-1.5936000000000061" x="-1.5936000000000061" g="1.6194068678460072" b="1.6194068678460072" rho="0.992"/>
                <iidm:step r="0.0" x="0.0" g="0.0" b="0.0" rho="1.0"/>
                <iidm:step r="1.6064000000000078" x="1.6064000000000078" g="-1.5810027714789676" b="-1.5810027714789676" rho="1.008"/>
                <iidm:step r="3.2256000000000062" x="3.2256000000000062" g="-3.1248062496124995" b="-3.1248062496124995" rho="1.016"/>
                <iidm:step r="4.857599999999995" x="4.857599999999995" g="-4.632568359375" b="-4.632568359375" rho="1.024"/>
                <iidm:step r="6.502399999999997" x="6.502399999999997" g="-6.105402319572139" b="-6.105402319572139" rho="1.032"/>
                <iidm:step r="8.16000000000001" x="8.16000000000001" g="-7.544378698224863" b="-7.544378698224863" rho="1.04"/>
                <iidm:step r="9.830400000000017" x="9.830400000000017" g="-8.950527358545557" b="-8.950527358545557" rho="1.048"/>
                <iidm:step r="11.513600000000013" x="11.513600000000013" g="-10.324839302112043" b="-10.324839302112043" rho="1.056"/>
                <iidm:step r="13.209600000000021" x="13.209600000000021" g="-11.66826841539942" b="-11.66826841539942" rho="1.064"/>
                <iidm:step r="14.91840000000002" x="14.91840000000002" g="-12.981733125417705" b="-12.981733125417705" rho="1.072"/>
                <iidm:step r="16.64000000000001" x="16.64000000000001" g="-14.266117969821678" b="-14.266117969821678" rho="1.08"/>
                <iidm:step r="18.374400000000012" x="18.374400000000012" g="-15.5222750865052" b="-15.5222750865052" rho="1.088"/>
                <iidm:step r="20.12160000000003" x="20.12160000000003" g="-16.751025627364292" b="-16.751025627364292" rho="1.096"/>
                <iidm:step r="21.881600000000013" x="21.881600000000013" g="-17.953161100609126" b="-17.953161100609126" rho="1.104"/>
                <iidm:step r="23.65440000000003" x="23.65440000000003" g="-19.129444645722295" b="-19.129444645722295" rho="1.112"/>
                <iidm:step r="25.44000000000002" x="25.44000000000002" g="-20.280612244897966" b="-20.280612244897966" rho="1.12"/>
                <iidm:step r="27.23840000000002" x="27.23840000000002" g="-21.407373874553603" b="-21.407373874553603" rho="1.1280000000000001"/>
            </iidm:ratioTapChanger>
            <iidm:currentLimits1 permanentLimit="1308.1">
                <iidm:temporaryLimit name="a5d3cd27-798c-4910-9729-6fc745346601" acceptableDuration="20" value="1408.1"/>
                <iidm:temporaryLimit name="7059bdb7-fa2d-4061-aea7-a88760835e2f" acceptableDuration="10" value="1508.1"/>
            </iidm:currentLimits1>
            <iidm:currentLimits2 permanentLimit="13746.4">
                <iidm:temporaryLimit name="3674d58e-946d-4901-8084-eb21afe1565a" acceptableDuration="20" value="14746.4"/>
                <iidm:temporaryLimit name="a1cfb7e6-ed0d-4369-b555-007826ba82fb" acceptableDuration="10" value="15746.4"/>
            </iidm:currentLimits2>
        </iidm:twoWindingsTransformer>
        <iidm:twoWindingsTransformer id="b94318f6-6d24-4f56-96b9-df2531ad6543" name="BE-TR2_2" r="0.2057" x="2.78472075" g="0.0" b="0.0" ratedU1="220.0" ratedU2="110.0" node1="18" voltageLevelId1="b10b171b-3bc5-4849-bb1f-61ed9ea1ec7c" node2="14" voltageLevelId2="8bbd7e74-ae20-4dce-8780-c20f8e18c2e0" p1="-98.59536731004955" q1="140.6545629096539" p2="99.02682082094744" q2="-134.81364144899536">
            <iidm:alias type="CGMES.TransformerEnd1">81a18364-0397-48d3-b850-22a0e34b410f</iidm:alias>
            <iidm:alias type="CGMES.Terminal1">4c19ace6-c825-4c5b-87d9-031e6e6a3379</iidm:alias>
            <iidm:alias type="CGMES.Terminal2">ab7ece75-d726-48c8-a924-b0a9325e6d51</iidm:alias>
            <iidm:alias type="CGMES.TransformerEnd2">664a19e1-1dc2-48d5-b265-c0630981e61c</iidm:alias>
            <iidm:alias type="CGMES.RatioTapChanger1">955d9cd0-4a10-4031-b008-60c0dc340a07</iidm:alias>
            <iidm:ratioTapChanger lowTapPosition="1" tapPosition="10" targetDeadband="0.5" loadTapChangingCapabilities="true" regulating="false" targetV="0.0">
                <iidm:terminalRef id="b94318f6-6d24-4f56-96b9-df2531ad6543" side="TWO"/>
                <iidm:step r="0.0" x="0.0" g="0.0" b="0.0" rho="1.1764705882352942"/>
                <iidm:step r="0.0" x="0.0" g="0.0" b="0.0" rho="1.1594202898550725"/>
                <iidm:step r="0.0" x="0.0" g="0.0" b="0.0" rho="1.1428571428571428"/>
                <iidm:step r="0.0" x="0.0" g="0.0" b="0.0" rho="1.1267605633802817"/>
                <iidm:step r="0.0" x="0.0" g="0.0" b="0.0" rho="1.1111111111111112"/>
                <iidm:step r="0.0" x="0.0" g="0.0" b="0.0" rho="1.095890410958904"/>
                <iidm:step r="0.0" x="0.0" g="0.0" b="0.0" rho="1.081081081081081"/>
                <iidm:step r="0.0" x="0.0" g="0.0" b="0.0" rho="1.0666666666666667"/>
                <iidm:step r="0.0" x="0.0" g="0.0" b="0.0" rho="1.0526315789473684"/>
                <iidm:step r="0.0" x="0.0" g="0.0" b="0.0" rho="1.0389610389610389"/>
                <iidm:step r="0.0" x="0.0" g="0.0" b="0.0" rho="1.0256410256410258"/>
                <iidm:step r="0.0" x="0.0" g="0.0" b="0.0" rho="1.0126582278481011"/>
                <iidm:step r="0.0" x="0.0" g="0.0" b="0.0" rho="1.0"/>
                <iidm:step r="0.0" x="0.0" g="0.0" b="0.0" rho="0.9876543209876544"/>
                <iidm:step r="0.0" x="0.0" g="0.0" b="0.0" rho="0.9756097560975611"/>
                <iidm:step r="0.0" x="0.0" g="0.0" b="0.0" rho="0.9638554216867469"/>
                <iidm:step r="0.0" x="0.0" g="0.0" b="0.0" rho="0.9523809523809523"/>
                <iidm:step r="0.0" x="0.0" g="0.0" b="0.0" rho="0.9411764705882353"/>
                <iidm:step r="0.0" x="0.0" g="0.0" b="0.0" rho="0.9302325581395349"/>
                <iidm:step r="0.0" x="0.0" g="0.0" b="0.0" rho="0.9195402298850576"/>
                <iidm:step r="0.0" x="0.0" g="0.0" b="0.0" rho="0.9090909090909091"/>
                <iidm:step r="0.0" x="0.0" g="0.0" b="0.0" rho="0.898876404494382"/>
                <iidm:step r="0.0" x="0.0" g="0.0" b="0.0" rho="0.8888888888888888"/>
                <iidm:step r="0.0" x="0.0" g="0.0" b="0.0" rho="0.8791208791208791"/>
                <iidm:step r="0.0" x="0.0" g="0.0" b="0.0" rho="0.8695652173913044"/>
            </iidm:ratioTapChanger>
            <iidm:currentLimits1 permanentLimit="1705.8">
                <iidm:temporaryLimit name="0d6f26df-9f86-4df0-b00c-bfb23870257f" acceptableDuration="20" value="1805.8"/>
                <iidm:temporaryLimit name="5b77485f-20a3-4a19-8d15-e4038c81663f" acceptableDuration="10" value="1905.8"/>
            </iidm:currentLimits1>
            <iidm:currentLimits2 permanentLimit="3411.6">
                <iidm:temporaryLimit name="7939fc42-08ef-4ce7-9912-97552a4db39a" acceptableDuration="20" value="3611.6"/>
                <iidm:temporaryLimit name="84d4dbeb-ef3b-43a1-9a7e-ce5713013498" acceptableDuration="10" value="3811.6"/>
            </iidm:currentLimits2>
        </iidm:twoWindingsTransformer>
        <iidm:twoWindingsTransformer id="a708c3bc-465d-4fe7-b6ef-6fa6408a62b0" name="BE-TR2_1" r="0.20476920750000005" x="1.097992115" g="0.0" b="0.0" ratedU1="400.0" ratedU2="110.0" node1="16" voltageLevelId1="469df5f7-058f-4451-a998-57a48e8a56fe" node2="15" voltageLevelId2="8bbd7e74-ae20-4dce-8780-c20f8e18c2e0" p1="215.43357028874007" q1="-153.0205547919852" p2="-214.340904052187" q2="158.8795358697901">
            <iidm:alias type="CGMES.PhaseTapChanger1">6ebbef67-3061-4236-a6fd-6ccc4595f6c3</iidm:alias>
            <iidm:alias type="CGMES.Terminal1">c3774d3f-f48c-4954-a0cf-b4572eb714fd</iidm:alias>
            <iidm:alias type="CGMES.Terminal2">2cd21c77-b8b1-4896-95fb-240f45b9ac89</iidm:alias>
            <iidm:alias type="CGMES.TransformerEnd1">49ca3fd4-1b54-4c5b-83fd-4dbd0f9fec9d</iidm:alias>
            <iidm:alias type="CGMES.TransformerEnd2">1912224a-9e98-41aa-84cf-00875bce7264</iidm:alias>
            <iidm:phaseTapChanger lowTapPosition="1" tapPosition="10" targetDeadband="35.0" regulationMode="ACTIVE_POWER_CONTROL" regulationValue="-65.0" regulating="true">
                <iidm:terminalRef id="a708c3bc-465d-4fe7-b6ef-6fa6408a62b0" side="TWO"/>
                <iidm:step r="0.0" x="0.0" g="0.0" b="0.0" rho="0.9889363528682975" alpha="8.530765609948135"/>
                <iidm:step r="0.0" x="0.0" g="0.0" b="0.0" rho="0.9906788398452958" alpha="7.829076510059608"/>
                <iidm:step r="0.0" x="0.0" g="0.0" b="0.0" rho="0.9922778767136677" alpha="7.125016348901798"/>
                <iidm:step r="0.0" x="0.0" g="0.0" b="0.0" rho="0.9937313161588018" alpha="6.418786730238786"/>
                <iidm:step r="0.0" x="0.0" g="0.0" b="0.0" rho="0.9950371902099893" alpha="5.710593137499643"/>
                <iidm:step r="0.0" x="0.0" g="0.0" b="0.0" rho="0.996193717496113" alpha="5.000644597558434"/>
                <iidm:step r="0.0" x="0.0" g="0.0" b="0.0" rho="0.9971993098884564" alpha="4.289153328819019"/>
                <iidm:step r="0.0" x="0.0" g="0.0" b="0.0" rho="0.9980525784828885" alpha="3.576334374997351"/>
                <iidm:step r="0.0" x="0.0" g="0.0" b="0.0" rho="0.9987523388778446" alpha="2.862405226111748"/>
                <iidm:step r="0.0" x="0.0" g="0.0" b="0.0" rho="0.9992976157091807" alpha="2.1475854282985036"/>
                <iidm:step r="0.0" x="0.0" g="0.0" b="0.0" rho="0.9996876464081226" alpha="1.4320961841646465"/>
                <iidm:step r="0.0" x="0.0" g="0.0" b="0.0" rho="0.9999218841540815" alpha="0.7161599454704085"/>
                <iidm:step r="0.0" x="0.0" g="0.0" b="0.0" rho="1.0" alpha="-0.0"/>
                <iidm:step r="0.0" x="0.0" g="0.0" b="0.0" rho="0.9999218841540815" alpha="-0.7161599454704085"/>
                <iidm:step r="0.0" x="0.0" g="0.0" b="0.0" rho="0.9996876464081226" alpha="-1.4320961841646465"/>
                <iidm:step r="0.0" x="0.0" g="0.0" b="0.0" rho="0.9992976157091807" alpha="-2.1475854282985036"/>
                <iidm:step r="0.0" x="0.0" g="0.0" b="0.0" rho="0.9987523388778446" alpha="-2.862405226111748"/>
                <iidm:step r="0.0" x="0.0" g="0.0" b="0.0" rho="0.9980525784828885" alpha="-3.576334374997351"/>
                <iidm:step r="0.0" x="0.0" g="0.0" b="0.0" rho="0.9971993098884564" alpha="-4.289153328819019"/>
                <iidm:step r="0.0" x="0.0" g="0.0" b="0.0" rho="0.996193717496113" alpha="-5.000644597558434"/>
                <iidm:step r="0.0" x="0.0" g="0.0" b="0.0" rho="0.9950371902099893" alpha="-5.710593137499643"/>
                <iidm:step r="0.0" x="0.0" g="0.0" b="0.0" rho="0.9937313161588018" alpha="-6.418786730238786"/>
                <iidm:step r="0.0" x="0.0" g="0.0" b="0.0" rho="0.9922778767136677" alpha="-7.125016348901798"/>
                <iidm:step r="0.0" x="0.0" g="0.0" b="0.0" rho="0.9906788398452958" alpha="-7.829076510059608"/>
                <iidm:step r="0.0" x="0.0" g="0.0" b="0.0" rho="0.9889363528682975" alpha="-8.530765609948135"/>
            </iidm:phaseTapChanger>
            <iidm:currentLimits1 permanentLimit="938.2">
                <iidm:temporaryLimit name="aaa63bb1-fa34-41a3-bd92-0637bfce549c" acceptableDuration="20" value="958.2"/>
                <iidm:temporaryLimit name="acbd4688-6393-4b43-a9f4-27d8c3f8c309" acceptableDuration="10" value="998.2"/>
            </iidm:currentLimits1>
            <iidm:currentLimits2 permanentLimit="3411.6">
                <iidm:temporaryLimit name="da1cb116-0730-4a00-b795-8ab0b52ad89f" acceptableDuration="20" value="3611.6"/>
                <iidm:temporaryLimit name="4af98ccd-29f1-4039-86cd-c23fc2deb3bc" acceptableDuration="10" value="3811.6"/>
            </iidm:currentLimits2>
        </iidm:twoWindingsTransformer>
        <iidm:threeWindingsTransformer id="84ed55f4-61f5-4d9d-8755-bba7b877a246" name="BE-TR3_1" r1="0.898462" x1="17.204128" g1="0.0" b1="2.4375E-6" ratedU1="400.0" r2="1.070770247933884" x2="19.6664" g2="0.0" b2="0.0" ratedU2="220.0" r3="4.837006802721088" x3="21.760725623582765" g3="0.0" b3="0.0" ratedU3="21.0" ratedU0="400.0" node1="15" voltageLevelId1="469df5f7-058f-4451-a998-57a48e8a56fe" node2="17" voltageLevelId2="b10b171b-3bc5-4849-bb1f-61ed9ea1ec7c" node3="5" voltageLevelId3="929ba893-c9dc-44d7-b1fd-30834bd3ab85" p1="-36.44789747375428" q1="0.11793481892670606" p2="-76.4754809283605" q2="-21.17113785484881" p3="113.33841633456998" q3="23.141570727177694">
            <iidm:alias type="CGMES.TransformerEnd2">e1f661c0-971d-4ce5-ad39-0ec427f288ab</iidm:alias>
            <iidm:alias type="CGMES.TransformerEnd1">5f68a129-d5d8-4b71-9743-9ca2572ba26b</iidm:alias>
            <iidm:alias type="CGMES.Terminal3">ca0f7e2e-3442-4ada-a704-91f319c0ebe3</iidm:alias>
            <iidm:alias type="CGMES.TransformerEnd3">2e21d1ef-2287-434c-a767-1ca807cf2478</iidm:alias>
            <iidm:alias type="CGMES.RatioTapChanger2">fe25f43a-7341-446e-a71a-8ab7119ba806</iidm:alias>
            <iidm:alias type="CGMES.Terminal1">76e9ca77-f805-40ea-8120-5a6d58416d34</iidm:alias>
            <iidm:alias type="CGMES.Terminal2">53fd6693-57e6-482e-8fbe-dcf3531a7ce0</iidm:alias>
            <iidm:property name="v" value="416.3265057332742"/>
            <iidm:property name="angle" value="-6.791777956650198"/>
            <iidm:ratioTapChanger2 lowTapPosition="1" tapPosition="17" targetDeadband="0.5" loadTapChangingCapabilities="true" regulating="false" targetV="0.0">
                <iidm:terminalRef id="84ed55f4-61f5-4d9d-8755-bba7b877a246" side="TWO"/>
                <iidm:step r="0.0" x="0.0" g="0.0" b="0.0" rho="1.1111111111111112"/>
                <iidm:step r="0.0" x="0.0" g="0.0" b="0.0" rho="1.103448275862069"/>
                <iidm:step r="0.0" x="0.0" g="0.0" b="0.0" rho="1.095890410958904"/>
                <iidm:step r="0.0" x="0.0" g="0.0" b="0.0" rho="1.08843537414966"/>
                <iidm:step r="0.0" x="0.0" g="0.0" b="0.0" rho="1.081081081081081"/>
                <iidm:step r="0.0" x="0.0" g="0.0" b="0.0" rho="1.0738255033557047"/>
                <iidm:step r="0.0" x="0.0" g="0.0" b="0.0" rho="1.0666666666666667"/>
                <iidm:step r="0.0" x="0.0" g="0.0" b="0.0" rho="1.0596026490066226"/>
                <iidm:step r="0.0" x="0.0" g="0.0" b="0.0" rho="1.0526315789473684"/>
                <iidm:step r="0.0" x="0.0" g="0.0" b="0.0" rho="1.0457516339869282"/>
                <iidm:step r="0.0" x="0.0" g="0.0" b="0.0" rho="1.0389610389610389"/>
                <iidm:step r="0.0" x="0.0" g="0.0" b="0.0" rho="1.032258064516129"/>
                <iidm:step r="0.0" x="0.0" g="0.0" b="0.0" rho="1.0256410256410258"/>
                <iidm:step r="0.0" x="0.0" g="0.0" b="0.0" rho="1.019108280254777"/>
                <iidm:step r="0.0" x="0.0" g="0.0" b="0.0" rho="1.0126582278481011"/>
                <iidm:step r="0.0" x="0.0" g="0.0" b="0.0" rho="1.0062893081761006"/>
                <iidm:step r="0.0" x="0.0" g="0.0" b="0.0" rho="1.0"/>
                <iidm:step r="0.0" x="0.0" g="0.0" b="0.0" rho="0.9937888198757763"/>
                <iidm:step r="0.0" x="0.0" g="0.0" b="0.0" rho="0.9876543209876544"/>
                <iidm:step r="0.0" x="0.0" g="0.0" b="0.0" rho="0.9815950920245399"/>
                <iidm:step r="0.0" x="0.0" g="0.0" b="0.0" rho="0.9756097560975611"/>
                <iidm:step r="0.0" x="0.0" g="0.0" b="0.0" rho="0.9696969696969697"/>
                <iidm:step r="0.0" x="0.0" g="0.0" b="0.0" rho="0.9638554216867469"/>
                <iidm:step r="0.0" x="0.0" g="0.0" b="0.0" rho="0.9580838323353293"/>
                <iidm:step r="0.0" x="0.0" g="0.0" b="0.0" rho="0.9523809523809523"/>
                <iidm:step r="0.0" x="0.0" g="0.0" b="0.0" rho="0.9467455621301776"/>
                <iidm:step r="0.0" x="0.0" g="0.0" b="0.0" rho="0.9411764705882353"/>
                <iidm:step r="0.0" x="0.0" g="0.0" b="0.0" rho="0.935672514619883"/>
                <iidm:step r="0.0" x="0.0" g="0.0" b="0.0" rho="0.9302325581395349"/>
                <iidm:step r="0.0" x="0.0" g="0.0" b="0.0" rho="0.9248554913294798"/>
                <iidm:step r="0.0" x="0.0" g="0.0" b="0.0" rho="0.9195402298850576"/>
                <iidm:step r="0.0" x="0.0" g="0.0" b="0.0" rho="0.9142857142857143"/>
                <iidm:step r="0.0" x="0.0" g="0.0" b="0.0" rho="0.9090909090909091"/>
            </iidm:ratioTapChanger2>
            <iidm:currentLimits1 permanentLimit="938.2">
                <iidm:temporaryLimit name="ddcb76e0-13ea-413f-9a8f-553d78782f76" acceptableDuration="20" value="968.2"/>
                <iidm:temporaryLimit name="3e9ed732-dd10-4f10-bc9d-d399e1e75a78" acceptableDuration="10" value="998.2"/>
            </iidm:currentLimits1>
            <iidm:currentLimits2 permanentLimit="1705.8">
                <iidm:temporaryLimit name="52d7ccc6-b4a1-48eb-9cfa-f5870b8b7fce" acceptableDuration="20" value="1805.8"/>
                <iidm:temporaryLimit name="11763596-6f4b-4cd5-a4a0-be649f368e86" acceptableDuration="10" value="1905.8"/>
            </iidm:currentLimits2>
            <iidm:currentLimits3 permanentLimit="17870.4">
                <iidm:temporaryLimit name="50448009-0fad-4656-bce4-438fe76e18cf" acceptableDuration="20" value="18870.4"/>
                <iidm:temporaryLimit name="df2d3155-4436-4542-8d3b-64241c7433be" acceptableDuration="10" value="19870.4"/>
            </iidm:currentLimits3>
        </iidm:threeWindingsTransformer>
    </iidm:substation>
    <iidm:substation id="dfb3d892-fadc-4a65-8eee-5bd8715bbdf0" name="NL_HVDC Inverter" country="NL" geographicalTags="TENNET TSO B.V.">
        <iidm:property name="CGMES.regionName" value="NL"/>
        <iidm:property name="CGMES.subRegionId" value="c1d5bfe48f8011e08e4d00247eb1f55e"/>
        <iidm:property name="CGMES.regionId" value="c1d5bfe28f8011e08e4d00247eb1f55e"/>
        <iidm:voltageLevel id="10dff29d-ff80-49dc-b34e-3a58603bf0c6" name="123.9" nominalV="123.9" lowVoltageLimit="111.51" highVoltageLimit="136.29" topologyKind="NODE_BREAKER">
            <iidm:nodeBreakerTopology>
                <iidm:internalConnection node1="1" node2="0"/>
                <iidm:internalConnection node1="2" node2="0"/>
                <iidm:bus v="129.4588081999221" angle="-3.5790626806885957" nodes="0,1,2"/>
            </iidm:nodeBreakerTopology>
            <iidm:lccConverterStation id="84fd0a05-dda5-4e36-912b-37d1d3e751c7" name="Inverter" lossFactor="0.0" powerFactor="0.8" node="2" p="-0.0" q="0.0">
                <iidm:alias type="CGMES.Terminal1">6d8b1dfd-319d-4b53-a1ae-ed41c790051b</iidm:alias>
                <iidm:alias type="CGMES.ACDCConverterDCTerminal">d93fa389-1f5e-42ae-9213-ace113758bec</iidm:alias>
            </iidm:lccConverterStation>
        </iidm:voltageLevel>
        <iidm:voltageLevel id="613bf445-d1a8-409a-95f8-45b41f9a0eec" name="220.0" nominalV="220.0" lowVoltageLimit="198.0" highVoltageLimit="242.0" topologyKind="NODE_BREAKER">
            <iidm:nodeBreakerTopology>
                <iidm:internalConnection node1="1" node2="0"/>
                <iidm:internalConnection node1="2" node2="0"/>
                <iidm:internalConnection node1="3" node2="0"/>
                <iidm:bus v="229.87036161406664" angle="-3.5790626806885957" nodes="0,1,2,3"/>
            </iidm:nodeBreakerTopology>
            <iidm:shunt id="80b131ac-c989-4c5f-ab59-4635d99bf7c6" name="HVDC1" sectionCount="1" voltageRegulatorOn="false" targetV="0.0" targetDeadband="0.5" node="1" p="0.0" q="-130.99130982533418">
                <iidm:alias type="CGMES.Terminal1">d53172b8-4633-46f2-90a8-9e08cb0339fc</iidm:alias>
                <iidm:property name="CGMES.RegulatingControl" value="3f0c04e4-44d9-4a54-88a9-7af2798a51d8"/>
                <iidm:shuntLinearModel bPerSection="0.002479" gPerSection="0.0" maximumSectionCount="1"/>
            </iidm:shunt>
        </iidm:voltageLevel>
        <iidm:twoWindingsTransformer id="98f1c119-c884-4f79-a6f6-1c7597a30df4" name="NL_TR2_HVDC1" r="0.0" x="12.84945914693492" g="0.0" b="0.0" ratedU1="220.0" ratedU2="123.9" node1="3" voltageLevelId1="613bf445-d1a8-409a-95f8-45b41f9a0eec" node2="1" voltageLevelId2="10dff29d-ff80-49dc-b34e-3a58603bf0c6" p1="0.0" q1="0.0" p2="0.0" q2="0.0">
            <iidm:alias type="CGMES.TransformerEnd2">2b4b8f39-27f9-4651-91c6-16ebc42ca957</iidm:alias>
            <iidm:alias type="CGMES.Terminal1">c31f863a-8151-4400-a88f-33f517124576</iidm:alias>
...